
**** 12/04/19 20:34:39 ****** PSpice 17.2.0 (March 2016) ****** ID# 0 ********

 ** Profile: "SCHEMATIC1-paso_bajo_orden2"  [ C:\Users\Marcos\Desktop\INGENIER페\3죆URSO\1죆UATRIMESTRE\Electr蚤ica anal窕ica\Trabajo


 ****     CIRCUIT DESCRIPTION


******************************************************************************




** Creating circuit file "paso_bajo_orden2.cir" 
** WARNING: THIS AUTOMATICALLY GENERATED FILE MAY BE OVERWRITTEN BY SUBSEQUENT SIMULATIONS

*Libraries: 
* Profile Libraries :
* Local Libraries :
* From [PSPICE NETLIST] section of C:\Users\Marcos\AppData\Roaming\SPB_Data\cdssetup\OrCAD_PSpice\17.2.0\PSpice.ini file:
.lib "nom.lib" 

*Analysis directives: 
.DC LIN V_V8 6 -6 0.01 
.OPTIONS ADVCONV
.PROBE64 V(alias(*)) I(alias(*)) W(alias(*)) D(alias(*)) NOISE(alias(*)) 
.INC "..\SCHEMATIC1.net" 



**** INCLUDING SCHEMATIC1.net ****
* source PASO_BAJO
C_C1         N00186 0  1u  TC=0,0 
C_C2         0 N00175  1u  TC=0,0 
R_R1         N00182 N00175  33k TC=0,0 
R_R2         N00298 N00186  33k TC=0,0 
V_V1         N00298 0  
+PULSE 0V 5V 1u 1u 1u 0.5ms 2ms
V_V2         -VCC 0 -6V
V_V3         VCC 0 6V
R_R3         N01377 VOUT  1k TC=0,0 
X_U3A         N00186 N00182 VCC -VCC N00182 TL082
R_R4         0 N01377  1k TC=0,0 
R_R5         N01904 VHIST  4k TC=0,0 
R_R6         PEPITO N01904  1k TC=0,0 
X_U4A         N00175 N01377 VCC -VCC VOUT TL082
R_R7         N02297 VE  1k TC=0,0 
R_R8         N02697 N02297  1k TC=0,0 
R_R9         VOUT N02279  1k TC=0,0 
R_R10         0 N02279  1k TC=0,0 
X_U5         N02279 N02297 VCC -VCC VE uA741
V_V4         N02697 0  AC 0
+SIN 2.5 0.5 1k 0 0 0
X_U6         N01904 N05002 VCC -VCC VHIST uA741
R_R11         N12084 N06457  1k TC=0,0 
R_R12         N06457 N27494  100 TC=0,0 
R_R13         N06464 N06547  1k TC=0,0 
R_R14         N06547 N06571  1k TC=0,0 
R_R15         N06464 N06491  8.2k TC=0,0 
R_R17         N06571 N06655  1k TC=0,0 
R_R18         N06887 N06655  1k TC=0,0 
R_R19         N07019 N06655  1k TC=0,0 
R_R20         N06655 N06707  1k TC=0,0 
X_U7         0 N06457 VCC -VCC N06464 uA741
X_U8         0 N06547 VCC -VCC N06571 uA741
X_U9         0 N06655 VCC -VCC N06707 uA741
X_U10         0 N06864 VCC -VCC N06887 uA741
X_U11         0 N07087 VCC -VCC N07019 uA741
C_C3         N06864 N06887  1u  TC=0,0 
C_C4         N06464 N07087  1u  TC=0,0 
E_LAPLACE1         N12471 0 LAPLACE {V(N06707)} {(0.63)/(1.8*s +1 )}
R_R22         N12066 N12070  1k TC=0,0 
X_U12         N12244 N12070 VCC -VCC N12084 uA741
R_R24         N12471 N12244  1k TC=0,0 
R_R25         0 N12244  1k TC=0,0 
R_R23         N12070 N12084  1k TC=0,0 
V_V5         N12066 0 2.5V
R_R27         N14645 N14659  1k TC=0,0 
X_U13         0 N14669 VCC -VCC N14679 uA741
X_U17         0 N14879 VCC -VCC N15109 uA741
R_R34         N14879 N15109  1k TC=0,0 
R_R32         N15005 N14827  1k TC=0,0 
R_R31         N14935 N14939  1k TC=0,0 
R_R30         N14679 N14879  1k TC=0,0 
E_LAPLACE2         N14935 0 LAPLACE {V(N15109)} {(0.63)/(1.8*s +1 )}
X_U14         N14939 N14645 VCC -VCC N14659 uA741
R_R33         0 N14939  1k TC=0,0 
R_R35         N14659 N15005  1k TC=0,0 
R_R28         N14669 N14679  1k TC=0,0 
R_R26         N14641 N14645  1k TC=0,0 
V_V6         N14641 0 2.5V
X_U15         0 N15005 VCC -VCC N14827 uA741
R_R29         N14827 N14669  1k TC=0,0 
R_R38         N18647 N18657  1k TC=0,0 
X_U21         0 N19059 VCC -VCC N19069 uA741
E_LAPLACE3         N18913 0 LAPLACE {V(N19087)} {(0.63)/(1.8*s +1 )}
X_U22         0 N18857 VCC -VCC N19087 uA741
R_R47         N19281 N19059  100k TC=0,0 
R_R40         N18657 N18857  1k TC=0,0 
R_R44         N18857 N19087  1k TC=0,0 
X_U19         N18917 N18623 VCC -VCC N18637 uA741
V_V7         N18619 0 2.5V
R_R36         N18619 N18623  1k TC=0,0 
R_R43         0 N18917  1k TC=0,0 
R_R39         N18805 N18647  1k TC=0,0 
R_R37         N18623 N18637  1k TC=0,0 
C_C5         N19059 N19069  1u  TC=0,0 
X_U18         0 N18647 VCC -VCC N18657 uA741
R_R48         N19069 N18857  1k TC=0,0 
R_R45         N18637 N18983  1k TC=0,0 
R_R41         N18913 N18917  1k TC=0,0 
R_R42         N18983 N18805  100 TC=0,0 
R_R46         N18805 N19281  8.2k TC=0,0 
X_U20         0 N18983 VCC -VCC N18805 uA741
V_V8         N05002 0 2.5V
V_V9         N24976 0 15v
R_R49         N24976 N24983  1k TC=0,0 
D_D3         0 N24983 D1N5817 
D_D4         0 N24983 D1N4740A 
X_R50         N27494 N27494 N06464 POT PARAMS: SET=0.5 VALUE=10k
X_R51         N06491 N06491 N06864 POT PARAMS: SET=0.5 VALUE=100k
X_R52         N07087 N07087 N07019 POT PARAMS: SET=0.5 VALUE=100k
V_pepito         PEPITO 0 0v

**** RESUMING paso_bajo_orden2.cir ****
.END

**** 12/04/19 20:34:39 ****** PSpice 17.2.0 (March 2016) ****** ID# 0 ********

 ** Profile: "SCHEMATIC1-paso_bajo_orden2"  [ C:\Users\Marcos\Desktop\INGENIER페\3죆URSO\1죆UATRIMESTRE\Electr蚤ica anal窕ica\Trabajo


 ****     Diode MODEL PARAMETERS


******************************************************************************




               D1N5817         D1N4740A        X_U3A.dx        X_U3A.dy        
          IS    2.835000E-06    9.499996E-06  800.000000E-18  800.000000E-18 
           N                    3.38339                                      
         ISR   37.750000E-06   10.010000E-21                                 
         IKF     .3227                                                       
          BV                   10.055                                        
         IBV                     .20695                                      
          RS     .04712          .143217                        1.000000E-03 
          TT                  605.620000E-09                                 
         CJO  472.400000E-12  350.000000E-12                   10.000000E-12 
          VJ     .75             .75                                         
           M     .6215           .22336                                      
         XTI    0                                                            


               X_U4A.dx        X_U4A.dy        X_U5.dx         X_U5.dy         
          IS  800.000000E-18  800.000000E-18  800.000000E-18  800.000000E-18 
          RS                    1.000000E-03    1               1.000000E-03 
         CJO                   10.000000E-12                   10.000000E-12 


               X_U6.dx         X_U6.dy         X_U7.dx         X_U7.dy         
          IS  800.000000E-18  800.000000E-18  800.000000E-18  800.000000E-18 
          RS    1               1.000000E-03    1               1.000000E-03 
         CJO                   10.000000E-12                   10.000000E-12 


               X_U8.dx         X_U8.dy         X_U9.dx         X_U9.dy         
          IS  800.000000E-18  800.000000E-18  800.000000E-18  800.000000E-18 
          RS    1               1.000000E-03    1               1.000000E-03 
         CJO                   10.000000E-12                   10.000000E-12 


               X_U10.dx        X_U10.dy        X_U11.dx        X_U11.dy        
          IS  800.000000E-18  800.000000E-18  800.000000E-18  800.000000E-18 
          RS    1               1.000000E-03    1               1.000000E-03 
         CJO                   10.000000E-12                   10.000000E-12 


               X_U12.dx        X_U12.dy        X_U13.dx        X_U13.dy        
          IS  800.000000E-18  800.000000E-18  800.000000E-18  800.000000E-18 
          RS    1               1.000000E-03    1               1.000000E-03 
         CJO                   10.000000E-12                   10.000000E-12 


               X_U17.dx        X_U17.dy        X_U14.dx        X_U14.dy        
          IS  800.000000E-18  800.000000E-18  800.000000E-18  800.000000E-18 
          RS    1               1.000000E-03    1               1.000000E-03 
         CJO                   10.000000E-12                   10.000000E-12 


               X_U15.dx        X_U15.dy        X_U21.dx        X_U21.dy        
          IS  800.000000E-18  800.000000E-18  800.000000E-18  800.000000E-18 
          RS    1               1.000000E-03    1               1.000000E-03 
         CJO                   10.000000E-12                   10.000000E-12 


               X_U22.dx        X_U22.dy        X_U19.dx        X_U19.dy        
          IS  800.000000E-18  800.000000E-18  800.000000E-18  800.000000E-18 
          RS    1               1.000000E-03    1               1.000000E-03 
         CJO                   10.000000E-12                   10.000000E-12 


               X_U18.dx        X_U18.dy        X_U20.dx        X_U20.dy        
          IS  800.000000E-18  800.000000E-18  800.000000E-18  800.000000E-18 
          RS    1               1.000000E-03    1               1.000000E-03 
         CJO                   10.000000E-12                   10.000000E-12 


**** 12/04/19 20:34:39 ****** PSpice 17.2.0 (March 2016) ****** ID# 0 ********

 ** Profile: "SCHEMATIC1-paso_bajo_orden2"  [ C:\Users\Marcos\Desktop\INGENIER페\3죆URSO\1죆UATRIMESTRE\Electr蚤ica anal窕ica\Trabajo


 ****     BJT MODEL PARAMETERS


******************************************************************************




               X_U5.qx         X_U6.qx         X_U7.qx         X_U8.qx         
               NPN             NPN             NPN             NPN             
       LEVEL    1               1               1               1            
          IS  800.000000E-18  800.000000E-18  800.000000E-18  800.000000E-18 
          BF   93.75           93.75           93.75           93.75         
          NF    1               1               1               1            
          BR    1               1               1               1            
          NR    1               1               1               1            
         ISS    0               0               0               0            
          RE    0               0               0               0            
          RC    0               0               0               0            
         CJE    0               0               0               0            
         VJE     .75             .75             .75             .75         
         CJC    0               0               0               0            
         VJC     .75             .75             .75             .75         
         MJC     .33             .33             .33             .33         
        XCJC    1               1               1               1            
         CJS    0               0               0               0            
         VJS     .75             .75             .75             .75         
          KF    0               0               0               0            
          AF    1               1               1               1            
          CN    2.42            2.42            2.42            2.42         
           D     .87             .87             .87             .87         


               X_U9.qx         X_U10.qx        X_U11.qx        X_U12.qx        
               NPN             NPN             NPN             NPN             
       LEVEL    1               1               1               1            
          IS  800.000000E-18  800.000000E-18  800.000000E-18  800.000000E-18 
          BF   93.75           93.75           93.75           93.75         
          NF    1               1               1               1            
          BR    1               1               1               1            
          NR    1               1               1               1            
         ISS    0               0               0               0            
          RE    0               0               0               0            
          RC    0               0               0               0            
         CJE    0               0               0               0            
         VJE     .75             .75             .75             .75         
         CJC    0               0               0               0            
         VJC     .75             .75             .75             .75         
         MJC     .33             .33             .33             .33         
        XCJC    1               1               1               1            
         CJS    0               0               0               0            
         VJS     .75             .75             .75             .75         
          KF    0               0               0               0            
          AF    1               1               1               1            
          CN    2.42            2.42            2.42            2.42         
           D     .87             .87             .87             .87         


               X_U13.qx        X_U17.qx        X_U14.qx        X_U15.qx        
               NPN             NPN             NPN             NPN             
       LEVEL    1               1               1               1            
          IS  800.000000E-18  800.000000E-18  800.000000E-18  800.000000E-18 
          BF   93.75           93.75           93.75           93.75         
          NF    1               1               1               1            
          BR    1               1               1               1            
          NR    1               1               1               1            
         ISS    0               0               0               0            
          RE    0               0               0               0            
          RC    0               0               0               0            
         CJE    0               0               0               0            
         VJE     .75             .75             .75             .75         
         CJC    0               0               0               0            
         VJC     .75             .75             .75             .75         
         MJC     .33             .33             .33             .33         
        XCJC    1               1               1               1            
         CJS    0               0               0               0            
         VJS     .75             .75             .75             .75         
          KF    0               0               0               0            
          AF    1               1               1               1            
          CN    2.42            2.42            2.42            2.42         
           D     .87             .87             .87             .87         


               X_U21.qx        X_U22.qx        X_U19.qx        X_U18.qx        
               NPN             NPN             NPN             NPN             
       LEVEL    1               1               1               1            
          IS  800.000000E-18  800.000000E-18  800.000000E-18  800.000000E-18 
          BF   93.75           93.75           93.75           93.75         
          NF    1               1               1               1            
          BR    1               1               1               1            
          NR    1               1               1               1            
         ISS    0               0               0               0            
          RE    0               0               0               0            
          RC    0               0               0               0            
         CJE    0               0               0               0            
         VJE     .75             .75             .75             .75         
         CJC    0               0               0               0            
         VJC     .75             .75             .75             .75         
         MJC     .33             .33             .33             .33         
        XCJC    1               1               1               1            
         CJS    0               0               0               0            
         VJS     .75             .75             .75             .75         
          KF    0               0               0               0            
          AF    1               1               1               1            
          CN    2.42            2.42            2.42            2.42         
           D     .87             .87             .87             .87         


               X_U20.qx        
               NPN             
       LEVEL    1            
          IS  800.000000E-18 
          BF   93.75         
          NF    1            
          BR    1            
          NR    1            
         ISS    0            
          RE    0            
          RC    0            
         CJE    0            
         VJE     .75         
         CJC    0            
         VJC     .75         
         MJC     .33         
        XCJC    1            
         CJS    0            
         VJS     .75         
          KF    0            
          AF    1            
          CN    2.42         
           D     .87         


**** 12/04/19 20:34:39 ****** PSpice 17.2.0 (March 2016) ****** ID# 0 ********

 ** Profile: "SCHEMATIC1-paso_bajo_orden2"  [ C:\Users\Marcos\Desktop\INGENIER페\3죆URSO\1죆UATRIMESTRE\Electr蚤ica anal窕ica\Trabajo


 ****     Junction FET MODEL PARAMETERS


******************************************************************************




               X_U3A.jx1       X_U3A.jx2       X_U4A.jx1       X_U4A.jx2       
               NJF             NJF             NJF             NJF             
         VTO   -1              -1              -1              -1            
        BETA  222.070000E-06  222.070000E-06  222.070000E-06  222.070000E-06 
          IS  100.000000E-12  100.000000E-12  100.000000E-12  100.000000E-12 


Starting pseudo-transient algorithm.

ERROR -- Convergence problem in DC sweep


  Last node voltages tried were:

 NODE   VOLTAGE     NODE   VOLTAGE     NODE   VOLTAGE     NODE   VOLTAGE


(   VE)    0.0000  (  VCC)    0.0000  ( -VCC)    0.0000  ( VOUT)    0.0000      

(VHIST)    0.0000  (N00175)    0.0000 (N00182)    0.0000 (N00186)    0.0000     

(N00298)    0.0000 (N01377)    0.0000 (N01904)    0.0000 (N02279)    0.0000     

(N02297)    0.0000 (N02697)    0.0000 (N05002)    0.0000 (N06457)    0.0000     

(N06464)    0.0000 (N06491)    0.0000 (N06547)    0.0000 (N06571)    0.0000     

(N06655)    0.0000 (N06707)    0.0000 (N06864)    0.0000 (N06887)    0.0000     

(N07019)    0.0000 (N07087)    0.0000 (N12066)    0.0000 (N12070)    0.0000     

(N12084)    0.0000 (N12244)    0.0000 (N12471)    0.0000 (N14641)    0.0000     

(N14645)    0.0000 (N14659)    0.0000 (N14669)    0.0000 (N14679)    0.0000     

(N14827)    0.0000 (N14879)    0.0000 (N14935)    0.0000 (N14939)    0.0000     

(N15005)    0.0000 (N15109)    0.0000 (N18619)    0.0000 (N18623)    0.0000     

(N18637)    0.0000 (N18647)    0.0000 (N18657)    0.0000 (N18805)    0.0000     

(N18857)    0.0000 (N18913)    0.0000 (N18917)    0.0000 (N18983)    0.0000     

(N19059)    0.0000 (N19069)    0.0000 (N19087)    0.0000 (N19281)    0.0000     

(N24976)    0.0000 (N24983)    0.0000 (N27494)    0.0000 (PEPITO)    0.0000     

(X_U5.6)    0.0000 (X_U5.7)    0.0000 (X_U5.8)    0.0000 (X_U5.9)    0.0000     

(X_U6.6)    0.0000 (X_U6.7)    0.0000 (X_U6.8)    0.0000 (X_U6.9)    0.0000     

(X_U7.6)    0.0000 (X_U7.7)    0.0000 (X_U7.8)    0.0000 (X_U7.9)    0.0000     

(X_U8.6)    0.0000 (X_U8.7)    0.0000 (X_U8.8)    0.0000 (X_U8.9)    0.0000     

(X_U9.6)    0.0000 (X_U9.7)    0.0000 (X_U9.8)    0.0000 (X_U9.9)    0.0000     

(X_U10.6)    0.0000                   (X_U10.7)    0.0000                       

(X_U10.8)    0.0000                   (X_U10.9)    0.0000                       

(X_U11.6)    0.0000                   (X_U11.7)    0.0000                       

(X_U11.8)    0.0000                   (X_U11.9)    0.0000                       

(X_U12.6)    0.0000                   (X_U12.7)    0.0000                       

(X_U12.8)    0.0000                   (X_U12.9)    0.0000                       

(X_U13.6)    0.0000                   (X_U13.7)    0.0000                       

(X_U13.8)    0.0000                   (X_U13.9)    0.0000                       

(X_U14.6)    0.0000                   (X_U14.7)    0.0000                       

(X_U14.8)    0.0000                   (X_U14.9)    0.0000                       

(X_U15.6)    0.0000                   (X_U15.7)    0.0000                       

(X_U15.8)    0.0000                   (X_U15.9)    0.0000                       

(X_U17.6)    0.0000                   (X_U17.7)    0.0000                       

(X_U17.8)    0.0000                   (X_U17.9)    0.0000                       

(X_U18.6)    0.0000                   (X_U18.7)    0.0000                       

(X_U18.8)    0.0000                   (X_U18.9)    0.0000                       

(X_U19.6)    0.0000                   (X_U19.7)    0.0000                       

(X_U19.8)    0.0000                   (X_U19.9)    0.0000                       

(X_U20.6)    0.0000                   (X_U20.7)    0.0000                       

(X_U20.8)    0.0000                   (X_U20.9)    0.0000                       

(X_U21.6)    0.0000                   (X_U21.7)    0.0000                       

(X_U21.8)    0.0000                   (X_U21.9)    0.0000                       

(X_U22.6)    0.0000                   (X_U22.7)    0.0000                       

(X_U22.8)    0.0000                   (X_U22.9)    0.0000                       

(X_U3A.6)    0.0000                   (X_U3A.7)    0.0000                       

(X_U3A.8)    0.0000                   (X_U3A.9)    0.0000                       

(X_U4A.6)    0.0000                   (X_U4A.7)    0.0000                       

(X_U4A.8)    0.0000                   (X_U4A.9)    0.0000                       

(X_U5.10)    0.0000                   (X_U5.11)    0.0000                       

(X_U5.12)    0.0000                   (X_U5.13)    0.0000                       

(X_U5.14)    0.0000                   (X_U5.53)    0.0000                       

(X_U5.54)    0.0000                   (X_U5.90)    0.0000                       

(X_U5.91)    0.0000                   (X_U5.92)    0.0000                       

(X_U5.99)    0.0000                   (X_U6.10)    0.0000                       

(X_U6.11)    0.0000                   (X_U6.12)    0.0000                       

(X_U6.13)    0.0000                   (X_U6.14)    0.0000                       

(X_U6.53)    0.0000                   (X_U6.54)    0.0000                       

(X_U6.90)    0.0000                   (X_U6.91)    0.0000                       

(X_U6.92)    0.0000                   (X_U6.99)    0.0000                       

(X_U7.10)    0.0000                   (X_U7.11)    0.0000                       

(X_U7.12)    0.0000                   (X_U7.13)    0.0000                       

(X_U7.14)    0.0000                   (X_U7.53)    0.0000                       

(X_U7.54)    0.0000                   (X_U7.90)    0.0000                       

(X_U7.91)    0.0000                   (X_U7.92)    0.0000                       

(X_U7.99)    0.0000                   (X_U8.10)    0.0000                       

(X_U8.11)    0.0000                   (X_U8.12)    0.0000                       

(X_U8.13)    0.0000                   (X_U8.14)    0.0000                       

(X_U8.53)    0.0000                   (X_U8.54)    0.0000                       

(X_U8.90)    0.0000                   (X_U8.91)    0.0000                       

(X_U8.92)    0.0000                   (X_U8.99)    0.0000                       

(X_U9.10)    0.0000                   (X_U9.11)    0.0000                       

(X_U9.12)    0.0000                   (X_U9.13)    0.0000                       

(X_U9.14)    0.0000                   (X_U9.53)    0.0000                       

(X_U9.54)    0.0000                   (X_U9.90)    0.0000                       

(X_U9.91)    0.0000                   (X_U9.92)    0.0000                       

(X_U9.99)    0.0000                   (X_U10.10)    0.0000                      

(X_U10.11)    0.0000                  (X_U10.12)    0.0000                      

(X_U10.13)    0.0000                  (X_U10.14)    0.0000                      

(X_U10.53)    0.0000                  (X_U10.54)    0.0000                      

(X_U10.90)    0.0000                  (X_U10.91)    0.0000                      

(X_U10.92)    0.0000                  (X_U10.99)    0.0000                      

(X_U11.10)    0.0000                  (X_U11.11)    0.0000                      

(X_U11.12)    0.0000                  (X_U11.13)    0.0000                      

(X_U11.14)    0.0000                  (X_U11.53)    0.0000                      

(X_U11.54)    0.0000                  (X_U11.90)    0.0000                      

(X_U11.91)    0.0000                  (X_U11.92)    0.0000                      

(X_U11.99)    0.0000                  (X_U12.10)    0.0000                      

(X_U12.11)    0.0000                  (X_U12.12)    0.0000                      

(X_U12.13)    0.0000                  (X_U12.14)    0.0000                      

(X_U12.53)    0.0000                  (X_U12.54)    0.0000                      

(X_U12.90)    0.0000                  (X_U12.91)    0.0000                      

(X_U12.92)    0.0000                  (X_U12.99)    0.0000                      

(X_U13.10)    0.0000                  (X_U13.11)    0.0000                      

(X_U13.12)    0.0000                  (X_U13.13)    0.0000                      

(X_U13.14)    0.0000                  (X_U13.53)    0.0000                      

(X_U13.54)    0.0000                  (X_U13.90)    0.0000                      

(X_U13.91)    0.0000                  (X_U13.92)    0.0000                      

(X_U13.99)    0.0000                  (X_U14.10)    0.0000                      

(X_U14.11)    0.0000                  (X_U14.12)    0.0000                      

(X_U14.13)    0.0000                  (X_U14.14)    0.0000                      

(X_U14.53)    0.0000                  (X_U14.54)    0.0000                      

(X_U14.90)    0.0000                  (X_U14.91)    0.0000                      

(X_U14.92)    0.0000                  (X_U14.99)    0.0000                      

(X_U15.10)    0.0000                  (X_U15.11)    0.0000                      

(X_U15.12)    0.0000                  (X_U15.13)    0.0000                      

(X_U15.14)    0.0000                  (X_U15.53)    0.0000                      

(X_U15.54)    0.0000                  (X_U15.90)    0.0000                      

(X_U15.91)    0.0000                  (X_U15.92)    0.0000                      

(X_U15.99)    0.0000                  (X_U17.10)    0.0000                      

(X_U17.11)    0.0000                  (X_U17.12)    0.0000                      

(X_U17.13)    0.0000                  (X_U17.14)    0.0000                      

(X_U17.53)    0.0000                  (X_U17.54)    0.0000                      

(X_U17.90)    0.0000                  (X_U17.91)    0.0000                      

(X_U17.92)    0.0000                  (X_U17.99)    0.0000                      

(X_U18.10)    0.0000                  (X_U18.11)    0.0000                      

(X_U18.12)    0.0000                  (X_U18.13)    0.0000                      

(X_U18.14)    0.0000                  (X_U18.53)    0.0000                      

(X_U18.54)    0.0000                  (X_U18.90)    0.0000                      

(X_U18.91)    0.0000                  (X_U18.92)    0.0000                      

(X_U18.99)    0.0000                  (X_U19.10)    0.0000                      

(X_U19.11)    0.0000                  (X_U19.12)    0.0000                      

(X_U19.13)    0.0000                  (X_U19.14)    0.0000                      

(X_U19.53)    0.0000                  (X_U19.54)    0.0000                      

(X_U19.90)    0.0000                  (X_U19.91)    0.0000                      

(X_U19.92)    0.0000                  (X_U19.99)    0.0000                      

(X_U20.10)    0.0000                  (X_U20.11)    0.0000                      

(X_U20.12)    0.0000                  (X_U20.13)    0.0000                      

(X_U20.14)    0.0000                  (X_U20.53)    0.0000                      

(X_U20.54)    0.0000                  (X_U20.90)    0.0000                      

(X_U20.91)    0.0000                  (X_U20.92)    0.0000                      

(X_U20.99)    0.0000                  (X_U21.10)    0.0000                      

(X_U21.11)    0.0000                  (X_U21.12)    0.0000                      

(X_U21.13)    0.0000                  (X_U21.14)    0.0000                      

(X_U21.53)    0.0000                  (X_U21.54)    0.0000                      

(X_U21.90)    0.0000                  (X_U21.91)    0.0000                      

(X_U21.92)    0.0000                  (X_U21.99)    0.0000                      

(X_U22.10)    0.0000                  (X_U22.11)    0.0000                      

(X_U22.12)    0.0000                  (X_U22.13)    0.0000                      

(X_U22.14)    0.0000                  (X_U22.53)    0.0000                      

(X_U22.54)    0.0000                  (X_U22.90)    0.0000                      

(X_U22.91)    0.0000                  (X_U22.92)    0.0000                      

(X_U22.99)    0.0000                  (X_U3A.10)    0.0000                      

(X_U3A.11)    0.0000                  (X_U3A.12)    0.0000                      

(X_U3A.53)    0.0000                  (X_U3A.54)    0.0000                      

(X_U3A.90)    0.0000                  (X_U3A.91)    0.0000                      

(X_U3A.92)    0.0000                  (X_U3A.99)    0.0000                      

(X_U4A.10)    0.0000                  (X_U4A.11)    0.0000                      

(X_U4A.12)    0.0000                  (X_U4A.53)    0.0000                      

(X_U4A.54)    0.0000                  (X_U4A.90)    0.0000                      

(X_U4A.91)    0.0000                  (X_U4A.92)    0.0000                      

(X_U4A.99)    0.0000                  


  These voltages failed to converge:

    V(N00186)                 =    1.395mV  \         0V
    V(N00175)                 =   -301.38V  \         0V
    V(N00182)                 =   -301.46V  \         0V
    V(-VCC)                   =    -6.000V  \         0V
    V(VCC)                    =     6.000V  \         0V
    V(N01377)                 =    181.41V  \         0V
    V(VOUT)                   =    362.81V  \         0V
    V(N01904)                 =     96.06V  \         0V
    V(VHIST)                  =    480.29V  \         0V
    V(N02297)                 =    237.37V  \         0V
    V(VE)                     =    472.24V  \         0V
    V(N02697)                 =     2.500V  \         0V
    V(N02279)                 =    181.41V  \         0V
    V(N12084)                 =    472.38V  \         0V
    V(N06457)                 =    474.61V  \         0V
    V(N27494)                 =    474.84V  \         0V
    V(N06464)                 =    486.01V  \         0V
    V(N06547)                 =    486.08V  \         0V
    V(N06571)                 =    486.14V  \         0V
    V(N06491)                 =    486.01V  \         0V
    V(N06655)                 =    486.14V  \         0V
    V(N06887)                 =    486.14V  \         0V
    V(N07019)                 =    486.14V  \         0V
    V(N06707)                 =    486.14V  \         0V
    V(N06864)                 =    486.01V  \         0V
    V(N07087)                 =    486.14V  \         0V
    V(N12471)                 =    306.27V  \         0V
    V(N12066)                 =     2.500V  \         0V
    V(N12070)                 =    237.44V  \         0V
    V(N12244)                 =    153.14V  \         0V
    V(N14645)                 =    237.56V  \         0V
    V(N14659)                 =    472.62V  \         0V
    V(N14879)                 =    486.14V  \         0V
    V(N15109)                 =    486.14V  \         0V
    V(N15005)                 =    479.19V  \         0V
    V(N14827)                 =    485.77V  \         0V
    V(N14935)                 =    306.27V  \         0V
    V(N14939)                 =    153.14V  \         0V
    V(N14679)                 =    486.13V  \         0V
    V(N14669)                 =    485.95V  \         0V
    V(N14641)                 =     2.500V  \         0V
    V(N18647)                 =    485.81V  \         0V
    V(N18657)                 =    486.12V  \         0V
    V(N18913)                 =    306.27V  \         0V
    V(N19087)                 =    486.14V  \         0V
    V(N19281)                 =    485.49V  \         0V
    V(N19059)                 =    485.49V  \         0V
    V(N18857)                 =    486.14V  \         0V
    V(N18619)                 =     2.500V  \         0V
    V(N18623)                 =    237.70V  \         0V
    V(N18917)                 =    153.14V  \         0V
    V(N18805)                 =    485.49V  \         0V
    V(N18637)                 =    472.90V  \         0V
    V(N19069)                 =    486.14V  \         0V
    V(N18983)                 =    484.35V  \         0V
    V(N05002)                 =    -1.160V  \         0V
    V(N24976)                 =     15.00V  \         0V
    V(N24983)                 =     5.640V  \         0V
    V(X_U3A.11)               =     5.557V  \         0V
    V(X_U3A.12)               =     5.559V  \         0V
    V(X_U3A.6)                =    39.81mV  \         0V
    V(X_U3A.7)                =   -301.70V  \         0V
    V(X_U3A.10)               =     5.372V  \         0V
    V(X_U3A.53)               =     3.684V  \         0V
    V(X_U3A.54)               =    -3.684V  \         0V
    V(X_U3A.90)               =    -4.828V  \         0V
    V(X_U3A.91)               =     40.00V  \         0V
    V(X_U3A.92)               =    -40.00V  \         0V
    V(X_U3A.8)                =   -301.70V  \         0V
    V(X_U4A.11)               =     5.563V  \         0V
    V(X_U4A.12)               =     5.560V  \         0V
    V(X_U4A.6)                =   -50.55mV  \         0V
    V(X_U4A.7)                =    381.25V  \         0V
    V(X_U4A.10)               =     5.376V  \         0V
    V(X_U4A.53)               =     3.684V  \         0V
    V(X_U4A.54)               =    -3.684V  \         0V
    V(X_U4A.90)               =    368.62V  \         0V
    V(X_U4A.91)               =     40.00V  \         0V
    V(X_U4A.92)               =    -40.00V  \         0V
    V(X_U4A.8)                =    381.25V  \         0V
    V(X_U5.11)                =     6.000V  \         0V
    V(X_U5.12)                =     6.000V  \         0V
    V(X_U5.6)                 =  -119.20mV  \         0V
    V(X_U5.7)                 =    484.36V  \         0V
    V(X_U5.53)                =     5.000V  \         0V
    V(X_U5.54)                =    -5.000V  \         0V
    V(X_U5.90)                =    242.43V  \         0V
    V(X_U5.91)                =     40.00V  \         0V
    V(X_U5.92)                =    -40.00V  \         0V
    V(X_U5.10)                =   -199.95V  \         0V
    V(X_U5.13)                =   -199.95V  \         0V
    V(X_U5.14)                =   -199.95V  \         0V
    V(X_U5.8)                 =    484.36V  \         0V
    V(X_U6.11)                =     6.000V  \         0V
    V(X_U6.12)                =     6.000V  \         0V
    V(X_U6.6)                 =  -119.18mV  \         0V
    V(X_U6.7)                 =    485.47V  \         0V
    V(X_U6.53)                =     5.000V  \         0V
    V(X_U6.54)                =    -5.000V  \         0V
    V(X_U6.90)                =    103.74V  \         0V
    V(X_U6.91)                =     40.00V  \         0V
    V(X_U6.92)                =    -40.00V  \         0V
    V(X_U6.10)                =   -199.95V  \         0V
    V(X_U6.13)                =   -199.95V  \         0V
    V(X_U6.14)                =   -199.95V  \         0V
    V(X_U6.8)                 =    485.47V  \         0V
    V(X_U7.11)                =     6.000V  \         0V
    V(X_U7.12)                =     6.000V  \         0V
    V(X_U7.6)                 =  -119.24mV  \         0V
    V(X_U7.7)                 =    486.51V  \         0V
    V(X_U7.53)                =     5.000V  \         0V
    V(X_U7.54)                =    -5.000V  \         0V
    V(X_U7.90)                =      9.95V  \         0V
    V(X_U7.91)                =     40.00V  \         0V
    V(X_U7.92)                =    -40.00V  \         0V
    V(X_U7.10)                =   -199.95V  \         0V
    V(X_U7.13)                =   -199.95V  \         0V
    V(X_U7.14)                =   -199.95V  \         0V
    V(X_U7.8)                 =    486.51V  \         0V
    V(X_U8.11)                =     6.000V  \         0V
    V(X_U8.12)                =     6.000V  \         0V
    V(X_U8.6)                 =  -119.24mV  \         0V
    V(X_U8.7)                 =    486.53V  \         0V
    V(X_U8.53)                =     5.000V  \         0V
    V(X_U8.54)                =    -5.000V  \         0V
    V(X_U8.90)                =     7.840V  \         0V
    V(X_U8.91)                =     40.00V  \         0V
    V(X_U8.92)                =    -40.00V  \         0V
    V(X_U8.10)                =   -199.95V  \         0V
    V(X_U8.13)                =   -199.95V  \         0V
    V(X_U8.14)                =   -199.95V  \         0V
    V(X_U8.8)                 =    486.53V  \         0V
    V(X_U9.11)                =     6.000V  \         0V
    V(X_U9.12)                =     6.000V  \         0V
    V(X_U9.6)                 =  -119.24mV  \         0V
    V(X_U9.7)                 =    486.53V  \         0V
    V(X_U9.53)                =     5.000V  \         0V
    V(X_U9.54)                =    -5.000V  \         0V
    V(X_U9.90)                =     7.779V  \         0V
    V(X_U9.91)                =     40.00V  \         0V
    V(X_U9.92)                =    -40.00V  \         0V
    V(X_U9.10)                =   -199.95V  \         0V
    V(X_U9.13)                =   -199.95V  \         0V
    V(X_U9.14)                =   -199.95V  \         0V
    V(X_U9.8)                 =    486.53V  \         0V
    V(X_U10.11)               =     6.000V  \         0V
    V(X_U10.12)               =     6.000V  \         0V
    V(X_U10.6)                =  -119.24mV  \         0V
    V(X_U10.7)                =    486.53V  \         0V
    V(X_U10.53)               =     5.000V  \         0V
    V(X_U10.54)               =    -5.000V  \         0V
    V(X_U10.90)               =     7.779V  \         0V
    V(X_U10.91)               =     40.00V  \         0V
    V(X_U10.92)               =    -40.00V  \         0V
    V(X_U10.10)               =   -199.95V  \         0V
    V(X_U10.13)               =   -199.95V  \         0V
    V(X_U10.14)               =   -199.95V  \         0V
    V(X_U10.8)                =    486.53V  \         0V
    V(X_U11.11)               =     6.000V  \         0V
    V(X_U11.12)               =     6.000V  \         0V
    V(X_U11.6)                =  -119.24mV  \         0V
    V(X_U11.7)                =    486.53V  \         0V
    V(X_U11.53)               =     5.000V  \         0V
    V(X_U11.54)               =    -5.000V  \         0V
    V(X_U11.90)               =     7.779V  \         0V
    V(X_U11.91)               =     40.00V  \         0V
    V(X_U11.92)               =    -40.00V  \         0V
    V(X_U11.10)               =   -199.95V  \         0V
    V(X_U11.13)               =   -199.95V  \         0V
    V(X_U11.14)               =   -199.95V  \         0V
    V(X_U11.8)                =    486.53V  \         0V
    V(X_U12.11)               =     6.000V  \         0V
    V(X_U12.12)               =     6.000V  \         0V
    V(X_U12.6)                =  -119.20mV  \         0V
    V(X_U12.7)                =    484.39V  \         0V
    V(X_U12.53)               =     5.000V  \         0V
    V(X_U12.54)               =    -5.000V  \         0V
    V(X_U12.90)               =    240.26V  \         0V
    V(X_U12.91)               =     40.00V  \         0V
    V(X_U12.92)               =    -40.00V  \         0V
    V(X_U12.10)               =   -199.95V  \         0V
    V(X_U12.13)               =   -199.95V  \         0V
    V(X_U12.14)               =   -199.95V  \         0V
    V(X_U12.8)                =    484.39V  \         0V
    V(X_U13.11)               =     6.000V  \         0V
    V(X_U13.12)               =     6.000V  \         0V
    V(X_U13.6)                =  -119.24mV  \         0V
    V(X_U13.7)                =    486.53V  \         0V
    V(X_U13.53)               =     5.000V  \         0V
    V(X_U13.54)               =    -5.000V  \         0V
    V(X_U13.90)               =     7.956V  \         0V
    V(X_U13.91)               =     40.00V  \         0V
    V(X_U13.92)               =    -40.00V  \         0V
    V(X_U13.10)               =   -199.95V  \         0V
    V(X_U13.13)               =   -199.95V  \         0V
    V(X_U13.14)               =   -199.95V  \         0V
    V(X_U13.8)                =    486.53V  \         0V
    V(X_U17.11)               =     6.000V  \         0V
    V(X_U17.12)               =     6.000V  \         0V
    V(X_U17.6)                =  -119.24mV  \         0V
    V(X_U17.7)                =    486.53V  \         0V
    V(X_U17.53)               =     5.000V  \         0V
    V(X_U17.54)               =    -5.000V  \         0V
    V(X_U17.90)               =     7.783V  \         0V
    V(X_U17.91)               =     40.00V  \         0V
    V(X_U17.92)               =    -40.00V  \         0V
    V(X_U17.10)               =   -199.95V  \         0V
    V(X_U17.13)               =   -199.95V  \         0V
    V(X_U17.14)               =   -199.95V  \         0V
    V(X_U17.8)                =    486.53V  \         0V
    V(X_U14.11)               =     6.000V  \         0V
    V(X_U14.12)               =     6.000V  \         0V
    V(X_U14.6)                =  -119.20mV  \         0V
    V(X_U14.7)                =    484.43V  \         0V
    V(X_U14.53)               =     5.000V  \         0V
    V(X_U14.54)               =    -5.000V  \         0V
    V(X_U14.90)               =    236.05V  \         0V
    V(X_U14.91)               =     40.00V  \         0V
    V(X_U14.92)               =    -40.00V  \         0V
    V(X_U14.10)               =   -199.95V  \         0V
    V(X_U14.13)               =   -199.95V  \         0V
    V(X_U14.14)               =   -199.95V  \         0V
    V(X_U14.8)                =    484.43V  \         0V
    V(X_U15.11)               =     6.000V  \         0V
    V(X_U15.12)               =     6.000V  \         0V
    V(X_U15.6)                =  -119.24mV  \         0V
    V(X_U15.7)                =    486.47V  \         0V
    V(X_U15.53)               =     5.000V  \         0V
    V(X_U15.54)               =    -5.000V  \         0V
    V(X_U15.90)               =     14.16V  \         0V
    V(X_U15.91)               =     40.00V  \         0V
    V(X_U15.92)               =    -40.00V  \         0V
    V(X_U15.10)               =   -199.95V  \         0V
    V(X_U15.13)               =   -199.95V  \         0V
    V(X_U15.14)               =   -199.95V  \         0V
    V(X_U15.8)                =    486.47V  \         0V
    V(X_U21.11)               =     6.000V  \         0V
    V(X_U21.12)               =     6.000V  \         0V
    V(X_U21.6)                =  -119.24mV  \         0V
    V(X_U21.7)                =    486.53V  \         0V
    V(X_U21.53)               =     5.000V  \         0V
    V(X_U21.54)               =    -5.000V  \         0V
    V(X_U21.90)               =     7.784V  \         0V
    V(X_U21.91)               =     40.00V  \         0V
    V(X_U21.92)               =    -40.00V  \         0V
    V(X_U21.10)               =   -199.95V  \         0V
    V(X_U21.13)               =   -199.95V  \         0V
    V(X_U21.14)               =   -199.95V  \         0V
    V(X_U21.8)                =    486.53V  \         0V
    V(X_U22.11)               =     6.000V  \         0V
    V(X_U22.12)               =     6.000V  \         0V
    V(X_U22.6)                =  -119.24mV  \         0V
    V(X_U22.7)                =    486.53V  \         0V
    V(X_U22.53)               =     5.000V  \         0V
    V(X_U22.54)               =    -5.000V  \         0V
    V(X_U22.90)               =     7.784V  \         0V
    V(X_U22.91)               =     40.00V  \         0V
    V(X_U22.92)               =    -40.00V  \         0V
    V(X_U22.10)               =   -199.95V  \         0V
    V(X_U22.13)               =   -199.95V  \         0V
    V(X_U22.14)               =   -199.95V  \         0V
    V(X_U22.8)                =    486.53V  \         0V
    V(X_U19.11)               =     6.000V  \         0V
    V(X_U19.12)               =     6.000V  \         0V
    V(X_U19.6)                =  -119.20mV  \         0V
    V(X_U19.7)                =    484.47V  \         0V
    V(X_U19.53)               =     5.000V  \         0V
    V(X_U19.54)               =    -5.000V  \         0V
    V(X_U19.90)               =    231.32V  \         0V
    V(X_U19.91)               =     40.00V  \         0V
    V(X_U19.92)               =    -40.00V  \         0V
    V(X_U19.10)               =   -199.95V  \         0V
    V(X_U19.13)               =   -199.95V  \         0V
    V(X_U19.14)               =   -199.95V  \         0V
    V(X_U19.8)                =    484.47V  \         0V
    V(X_U18.11)               =     6.000V  \         0V
    V(X_U18.12)               =     6.000V  \         0V
    V(X_U18.6)                =  -119.24mV  \         0V
    V(X_U18.7)                =    486.53V  \         0V
    V(X_U18.53)               =     5.000V  \         0V
    V(X_U18.54)               =    -5.000V  \         0V
    V(X_U18.90)               =     8.083V  \         0V
    V(X_U18.91)               =     40.00V  \         0V
    V(X_U18.92)               =    -40.00V  \         0V
    V(X_U18.10)               =   -199.95V  \         0V
    V(X_U18.13)               =   -199.95V  \         0V
    V(X_U18.14)               =   -199.95V  \         0V
    V(X_U18.8)                =    486.53V  \         0V
    V(X_U20.11)               =     6.000V  \         0V
    V(X_U20.12)               =     6.000V  \         0V
    V(X_U20.6)                =  -119.24mV  \         0V
    V(X_U20.7)                =    486.44V  \         0V
    V(X_U20.53)               =     5.000V  \         0V
    V(X_U20.54)               =    -5.000V  \         0V
    V(X_U20.90)               =     18.90V  \         0V
    V(X_U20.91)               =     40.00V  \         0V
    V(X_U20.92)               =    -40.00V  \         0V
    V(X_U20.10)               =   -199.95V  \         0V
    V(X_U20.13)               =   -199.95V  \         0V
    V(X_U20.14)               =   -199.95V  \         0V
    V(X_U20.8)                =    486.44V  \         0V

  These supply currents failed to converge:

    I(E_LAPLACE1)             =  -153.14mA  \         0A
    I(E_LAPLACE2)             =  -153.14mA  \         0A
    I(E_LAPLACE3)             =  -153.14mA  \         0A
    I(X_U3A.egnd)             =    4.832mA  \         0A
    I(X_U4A.egnd)             =  -368.62mA  \         0A
    I(X_U5.egnd)              =  -242.44mA  \         0A
    I(X_U6.egnd)              =  -103.76mA  \         0A
    I(X_U7.egnd)              =    -9.96mA  \         0A
    I(X_U8.egnd)              =   -7.855mA  \         0A
    I(X_U9.egnd)              =   -7.794mA  \         0A
    I(X_U10.egnd)             =   -7.794mA  \         0A
    I(X_U11.egnd)             =   -7.794mA  \         0A
    I(X_U12.egnd)             =  -240.28mA  \         0A
    I(X_U13.egnd)             =   -7.971mA  \         0A
    I(X_U17.egnd)             =   -7.799mA  \         0A
    I(X_U14.egnd)             =  -236.07mA  \         0A
    I(X_U15.egnd)             =   -14.18mA  \         0A
    I(X_U21.egnd)             =   -7.799mA  \         0A
    I(X_U22.egnd)             =   -7.799mA  \         0A
    I(X_U19.egnd)             =  -231.33mA  \         0A
    I(X_U18.egnd)             =   -8.098mA  \         0A
    I(X_U20.egnd)             =   -18.91mA  \         0A
    I(V_V1)                   =    42.26nA  \         0A
    I(V_V2)                   =    96.80mA  \         0A
    I(V_V3)                   =    35.68mA  \         0A
    I(V_V4)                   =   234.87mA  \         0A
    I(V_V5)                   =   234.94mA  \         0A
    I(V_V6)                   =   235.06mA  \         0A
    I(V_V7)                   =   235.20mA  \         0A
    I(V_V8)                   =    5.195pA  \         0A
    I(V_V9)                   =   -9.360mA  \         0A
    I(V_pepito)               =    96.06mA  \         0A
    I(X_U3A.vb)               =   398.12nA  \         0A
    I(X_U3A.vc)               =    2.441mA  \         0A
    I(X_U3A.ve)               =   -2.382mA  \         0A
    I(X_U3A.vlim)             =   -4.828mA  \         0A
    I(X_U3A.vlp)              =   -46.22pA  \         0A
    I(X_U3A.vln)              =   -36.26pA  \         0A
    I(X_U4A.vb)               =  -505.53nA  \         0A
    I(X_U4A.vc)               =   -2.873mA  \         0A
    I(X_U4A.ve)               =    2.932mA  \         0A
    I(X_U4A.vlim)             =   368.62mA  \         0A
    I(X_U4A.vlp)              =   338.79pA  \         0A
    I(X_U4A.vln)              =  -421.26pA  \         0A
    I(X_U5.vb)                =   -1.192uA  \         0A
    I(X_U5.vc)                =   -3.738mA  \         0A
    I(X_U5.ve)                =    3.818mA  \         0A
    I(X_U5.vlim)              =   242.43mA  \         0A
    I(X_U5.vlp)               =   208.69pA  \         0A
    I(X_U5.vln)               =  -291.16pA  \         0A
    I(X_U6.vb)                =   -1.192uA  \         0A
    I(X_U6.vc)                =   -3.802mA  \         0A
    I(X_U6.ve)                =    3.882mA  \         0A
    I(X_U6.vlim)              =   103.74mA  \         0A
    I(X_U6.vlp)               =    65.71pA  \         0A
    I(X_U6.vln)               =  -148.19pA  \         0A
    I(X_U7.vb)                =   -1.192uA  \         0A
    I(X_U7.vc)                =   -3.848mA  \         0A
    I(X_U7.ve)                =    3.928mA  \         0A
    I(X_U7.vlim)              =     9.95mA  \         0A
    I(X_U7.vlp)               =   -30.98pA  \         0A
    I(X_U7.vln)               =   -51.49pA  \         0A
    I(X_U8.vb)                =   -1.192uA  \         0A
    I(X_U8.vc)                =   -3.849mA  \         0A
    I(X_U8.ve)                =    3.929mA  \         0A
    I(X_U8.vlim)              =    7.840mA  \         0A
    I(X_U8.vlp)               =   -33.16pA  \         0A
    I(X_U8.vln)               =   -49.32pA  \         0A
    I(X_U9.vb)                =   -1.192uA  \         0A
    I(X_U9.vc)                =   -3.849mA  \         0A
    I(X_U9.ve)                =    3.929mA  \         0A
    I(X_U9.vlim)              =    7.779mA  \         0A
    I(X_U9.vlp)               =   -33.22pA  \         0A
    I(X_U9.vln)               =   -49.26pA  \         0A
    I(X_U10.vb)               =   -1.192uA  \         0A
    I(X_U10.vc)               =   -3.849mA  \         0A
    I(X_U10.ve)               =    3.929mA  \         0A
    I(X_U10.vlim)             =    7.779mA  \         0A
    I(X_U10.vlp)              =   -33.22pA  \         0A
    I(X_U10.vln)              =   -49.26pA  \         0A
    I(X_U11.vb)               =   -1.192uA  \         0A
    I(X_U11.vc)               =   -3.849mA  \         0A
    I(X_U11.ve)               =    3.929mA  \         0A
    I(X_U11.vlim)             =    7.779mA  \         0A
    I(X_U11.vlp)              =   -33.22pA  \         0A
    I(X_U11.vln)              =   -49.26pA  \         0A
    I(X_U12.vb)               =   -1.192uA  \         0A
    I(X_U12.vc)               =   -3.739mA  \         0A
    I(X_U12.ve)               =    3.819mA  \         0A
    I(X_U12.vlim)             =   240.26mA  \         0A
    I(X_U12.vlp)              =   206.46pA  \         0A
    I(X_U12.vln)              =  -288.93pA  \         0A
    I(X_U13.vb)               =   -1.192uA  \         0A
    I(X_U13.vc)               =   -3.849mA  \         0A
    I(X_U13.ve)               =    3.929mA  \         0A
    I(X_U13.vlim)             =    7.956mA  \         0A
    I(X_U13.vlp)              =   -33.04pA  \         0A
    I(X_U13.vln)              =   -49.44pA  \         0A
    I(X_U17.vb)               =   -1.192uA  \         0A
    I(X_U17.vc)               =   -3.849mA  \         0A
    I(X_U17.ve)               =    3.929mA  \         0A
    I(X_U17.vlim)             =    7.783mA  \         0A
    I(X_U17.vlp)              =   -33.21pA  \         0A
    I(X_U17.vln)              =   -49.26pA  \         0A
    I(X_U14.vb)               =   -1.192uA  \         0A
    I(X_U14.vc)               =   -3.741mA  \         0A
    I(X_U14.ve)               =    3.821mA  \         0A
    I(X_U14.vlim)             =   236.05mA  \         0A
    I(X_U14.vlp)              =   202.12pA  \         0A
    I(X_U14.vln)              =  -284.59pA  \         0A
    I(X_U15.vb)               =   -1.192uA  \         0A
    I(X_U15.vc)               =   -3.846mA  \         0A
    I(X_U15.ve)               =    3.926mA  \         0A
    I(X_U15.vlim)             =    14.16mA  \         0A
    I(X_U15.vlp)              =   -26.64pA  \         0A
    I(X_U15.vln)              =   -55.84pA  \         0A
    I(X_U21.vb)               =   -1.192uA  \         0A
    I(X_U21.vc)               =   -3.849mA  \         0A
    I(X_U21.ve)               =    3.929mA  \         0A
    I(X_U21.vlim)             =    7.784mA  \         0A
    I(X_U21.vlp)              =   -33.21pA  \         0A
    I(X_U21.vln)              =   -49.27pA  \         0A
    I(X_U22.vb)               =   -1.192uA  \         0A
    I(X_U22.vc)               =   -3.849mA  \         0A
    I(X_U22.ve)               =    3.929mA  \         0A
    I(X_U22.vlim)             =    7.784mA  \         0A
    I(X_U22.vlp)              =   -33.21pA  \         0A
    I(X_U22.vln)              =   -49.27pA  \         0A
    I(X_U19.vb)               =   -1.192uA  \         0A
    I(X_U19.vc)               =   -3.743mA  \         0A
    I(X_U19.ve)               =    3.823mA  \         0A
    I(X_U19.vlim)             =   231.32mA  \         0A
    I(X_U19.vlp)              =   197.24pA  \         0A
    I(X_U19.vln)              =  -279.71pA  \         0A
    I(X_U18.vb)               =   -1.192uA  \         0A
    I(X_U18.vc)               =   -3.849mA  \         0A
    I(X_U18.ve)               =    3.929mA  \         0A
    I(X_U18.vlim)             =    8.083mA  \         0A
    I(X_U18.vlp)              =   -32.90pA  \         0A
    I(X_U18.vln)              =   -49.57pA  \         0A
    I(X_U20.vb)               =   -1.192uA  \         0A
    I(X_U20.vc)               =   -3.844mA  \         0A
    I(X_U20.ve)               =    3.924mA  \         0A
    I(X_U20.vlim)             =    18.90mA  \         0A
    I(X_U20.vlp)              =   -21.75pA  \         0A
    I(X_U20.vln)              =   -60.72pA  \         0A
    I(X_U3A.hlim)             =     9.96pA  \         0A
    I(X_U4A.hlim)             =  -760.04pA  \         0A
    I(X_U5.hlim)              =  -499.88pA  \         0A
    I(X_U6.hlim)              =  -213.90pA  \         0A
    I(X_U7.hlim)              =   -20.51pA  \         0A
    I(X_U8.hlim)              =   -16.17pA  \         0A
    I(X_U9.hlim)              =   -16.04pA  \         0A
    I(X_U10.hlim)             =   -16.04pA  \         0A
    I(X_U11.hlim)             =   -16.04pA  \         0A
    I(X_U12.hlim)             =  -495.39pA  \         0A
    I(X_U13.hlim)             =   -16.40pA  \         0A
    I(X_U17.hlim)             =   -16.05pA  \         0A
    I(X_U14.hlim)             =  -486.69pA  \         0A
    I(X_U15.hlim)             =   -29.20pA  \         0A
    I(X_U21.hlim)             =   -16.05pA  \         0A
    I(X_U22.hlim)             =   -16.05pA  \         0A
    I(X_U19.hlim)             =  -476.95pA  \         0A
    I(X_U18.hlim)             =   -16.67pA  \         0A
    I(X_U20.hlim)             =   -38.97pA  \         0A

  These devices failed to converge:
    D_D3      D_D4      X_U3A.dc  X_U3A.de  X_U3A.dlp X_U3A.dln X_U4A.dc  
    X_U4A.de  X_U4A.dlp X_U4A.dln X_U5.dc   X_U5.de   X_U5.dlp  X_U5.dln  
    X_U6.dc   X_U6.de   X_U6.dlp  X_U6.dln  X_U7.dc   X_U7.de   X_U7.dln  
    X_U8.dc   X_U8.de   X_U8.dln  X_U9.dc   X_U9.de   X_U9.dln  X_U10.dc  
    X_U10.de  X_U10.dln X_U11.dc  X_U11.de  X_U11.dln X_U12.dc  X_U12.de  
    X_U12.dlp X_U12.dln X_U13.dc  X_U13.de  X_U13.dln X_U17.dc  X_U17.de  
    X_U17.dln X_U14.dc  X_U14.de  X_U14.dlp X_U14.dln X_U15.dc  X_U15.de  
    X_U15.dln X_U21.dc  X_U21.de  X_U21.dln X_U22.dc  X_U22.de  X_U22.dln 
    X_U19.dc  X_U19.de  X_U19.dlp X_U19.dln X_U18.dc  X_U18.de  X_U18.dln 
    X_U20.dc  X_U20.de  X_U20.dln E_LAPLACE1 E_LAPLACE2 E_LAPLACE3 X_U3A.fb  
    X_U4A.fb  X_U5.fb   X_U6.fb   X_U7.fb   X_U8.fb   X_U9.fb   X_U10.fb  
    X_U11.fb  X_U12.fb  X_U13.fb  X_U17.fb  X_U14.fb  X_U15.fb  X_U21.fb  
    X_U22.fb  X_U19.fb  X_U18.fb  X_U20.fb  X_U3A.j1  X_U3A.j2  X_U4A.j1  
    X_U4A.j2  X_U5.q1   X_U5.q2   X_U6.q1   X_U6.q2   X_U7.q1   X_U7.q2   
    X_U8.q1   X_U8.q2   X_U9.q1   X_U9.q2   X_U10.q1  X_U10.q2  X_U11.q1  
    X_U11.q2  X_U12.q1  X_U12.q2  X_U13.q1  X_U13.q2  X_U17.q1  X_U17.q2  
    X_U14.q1  X_U14.q2  X_U15.q1  X_U15.q2  X_U21.q1  X_U21.q2  X_U22.q1  
    X_U22.q2  X_U19.q1  X_U19.q2  X_U18.q1  X_U18.q2  X_U20.q1  X_U20.q2  

**** Interrupt ****
